Circuit: * C:\Users\HP\Documents\LTspiceXVII\Draft3.asc


Date: Tue Jan 21 09:53:25 2020
Total elapsed time: 0.020 seconds.

tnom = 27
temp = 27
method = trap
totiter = 0
traniter = 0
tranpoints = 0
accept = 0
rejected = 0
matrix size = 3
fillins = 0
solver = Normal

