Circuit: * C:\Users\HP\Documents\LTspiceXVII\Draft1.asc

Direct Newton iteration for .op point succeeded.

Date: Tue Feb 18 10:22:04 2020
Total elapsed time: 0.091 seconds.

tnom = 27
temp = 27
method = modified trap
totiter = 2087
traniter = 2084
tranpoints = 1043
accept = 1043
rejected = 0
matrix size = 9
fillins = 1
solver = Normal
Matrix Compiler1: 350 bytes object code size  0.3/0.1/[0.1]
Matrix Compiler2: 613 bytes object code size  0.1/0.2/[0.1]

