Circuit: * C:\Users\HP\Documents\LTspiceXVII\Draft2.asc

V1: Missing value, assumed 0V @ DC
No AC stimulus found:
     Set the value of a current or voltage source to "AC 1."
     to make it behave as a signal generator for AC analysis.

Date: Sun Mar 01 11:02:54 2020
Total elapsed time: 0.110 seconds.

tnom = 27
temp = 27
method = trap
totiter = 0
traniter = 0
tranpoints = 0
accept = 0
rejected = 0
matrix size = 4
fillins = 0
solver = Normal

